ckt7_Mon_rfi_09_der050.csv
fault_bus,fault_type,fault_R_ohm,Va_mag_pu,Va_ang_deg,Vb_mag_pu,Vb_ang_deg,Vc_mag_pu,Vc_ang_deg,Ia_mag_A,Ia_ang_deg,Ib_mag_A,Ib_ang_deg,Ic_mag_A,Ic_ang_deg
318412,SLG,0,0.266318,-88.726,1.182138,-139.2434,0.998355,96.0148,4.3068,-69.0127,7.8615,-156.5847,9.1225,51.5591
318412,SLG,10,1.108216,-24.6539,1.108523,-144.35,1.105108,95.3934,8.5415,-52.4945,8.5604,-172.4676,8.5544,67.4089
318412,SLG,20,1.108174,-24.632,1.108561,-144.3517,1.105117,95.3959,8.5415,-52.4793,8.5614,-172.4639,8.5535,67.4128
318412,SLG,30,1.108161,-24.6247,1.108574,-144.3523,1.105121,95.3968,8.5415,-52.4742,8.5618,-172.4627,8.5531,67.414
318412,SLG,40,1.108154,-24.621,1.10858,-144.3525,1.105122,95.3972,8.5415,-52.4717,8.5619,-172.4621,8.553,67.4147
318412,LL,0,0.244604,-110.8412,0.16339,178.2751,1.047385,99.1791,5.1637,-112.4244,2.6056,-122.4356,7.7429,64.2219
318412,LL,10,1.108196,-24.6591,1.108606,-144.3939,1.105032,95.3969,8.5434,-52.5023,8.5604,-172.498,8.5525,67.4014
318412,LL,20,1.108164,-24.6346,1.108602,-144.3736,1.105079,95.3977,8.5425,-52.4832,8.5614,-172.4791,8.5525,67.409
318412,LL,30,1.108154,-24.6264,1.108601,-144.3669,1.105095,95.3979,8.5422,-52.4768,8.5617,-172.4728,8.5525,67.4116
318412,LL,40,1.108149,-24.6223,1.108601,-144.3635,1.105103,95.3981,8.542,-52.4736,8.5619,-172.4697,8.5525,67.4128
318412,3LG,0,0.142604,-101.8643,0.142604,138.3414,0.142368,18.0639,1.2066,-129.7183,1.2101,110.2989,1.2087,-9.8528
318412,3LG,10,1.10812,-24.6557,1.108586,-144.399,1.105114,95.3529,8.5414,-52.5097,8.5623,-172.5058,8.5524,67.371
318412,3LG,20,1.108127,-24.6329,1.108593,-144.3762,1.105121,95.3757,8.5415,-52.4869,8.5624,-172.483,8.5525,67.3938
318412,3LG,30,1.108129,-24.6253,1.108595,-144.3686,1.105123,95.3833,8.5415,-52.4793,8.5624,-172.4754,8.5525,67.4014
318412,3LG,40,1.10813,-24.6215,1.108596,-144.3648,1.105124,95.3871,8.5415,-52.4755,8.5624,-172.4716,8.5525,67.4052
243937,SLG,0,0.304683,-94.7315,1.526522,-168.726,1.617136,115.2337,8.5899,-60.1686,8.8722,-177.4758,9.0872,59.6574
243937,SLG,10,1.102201,-24.855,1.112158,-144.519,1.106134,95.641,8.5344,-52.5756,8.5535,-172.4671,8.5579,67.3679
243937,SLG,20,1.105159,-24.7328,1.110385,-144.4365,1.105626,95.5202,8.538,-52.52,8.5579,-172.4637,8.5552,67.3922
243937,SLG,30,1.106148,-24.6919,1.109791,-144.4088,1.105459,95.4798,8.5391,-52.5014,8.5594,-172.4626,8.5543,67.4003
243937,SLG,40,1.106644,-24.6715,1.109494,-144.395,1.105375,95.4595,8.5397,-52.4921,8.5602,-172.462,8.5539,67.4044
243937,LL,0,0.160206,-123.1074,0.148857,-145.5237,1.513475,95.1007,5.5888,-115.3156,5.5178,-118.5767,11.1022,63.0642
243937,LL,10,1.103207,-24.6133,1.106213,-144.7629,1.109661,95.4748,8.5399,-52.6253,8.5462,-172.5798,8.5489,67.3608
243937,LL,20,1.105655,-24.6115,1.107404,-144.5589,1.107406,95.4371,8.5407,-52.5447,8.5543,-172.5201,8.5507,67.3885
243937,LL,30,1.106478,-24.6109,1.107802,-144.4906,1.106649,95.4243,8.541,-52.5179,8.557,-172.5002,8.5513,67.3979
243937,LL,40,1.10689,-24.6107,1.108001,-144.4564,1.106269,95.4179,8.5411,-52.5044,8.5584,-172.4902,8.5516,67.4025
243937,3LG,0,0.035279,-85.3578,0.035276,154.8309,0.035225,34.5684,0.2985,-113.2182,0.2994,126.7957,0.299,6.6509
243937,3LG,10,1.106735,-24.7783,1.107199,-144.522,1.103738,95.23,8.5308,-52.6325,8.5516,-172.6286,8.5417,67.2482
243937,3LG,20,1.107435,-24.6942,1.1079,-144.4377,1.104433,95.3142,8.5362,-52.5483,8.557,-172.5445,8.5471,67.3324
243937,3LG,30,1.107668,-24.6662,1.108133,-144.4096,1.104664,95.3423,8.538,-52.5203,8.5588,-172.5164,8.5489,67.3605
243937,3LG,40,1.107784,-24.6521,1.10825,-144.3956,1.10478,95.3563,8.5388,-52.5062,8.5597,-172.5024,8.5498,67.3745
157347,SLG,0,0.465263,-29.5898,1.267122,-158.6148,1.351361,105.9586,8.8797,-54.2659,9.3147,-172.9828,9.2806,64.0644
157347,SLG,10,1.101752,-25.1841,1.114273,-144.4263,1.103523,95.6899,8.5292,-52.7,8.5442,-172.483,8.5647,67.3222
157347,SLG,20,1.104952,-24.8992,1.111458,-144.389,1.104295,95.5446,8.5355,-52.583,8.5533,-172.4721,8.5587,67.3694
157347,SLG,30,1.106015,-24.8033,1.11051,-144.377,1.104566,95.496,8.5375,-52.5435,8.5563,-172.4683,8.5566,67.3852
157347,SLG,40,1.106545,-24.7552,1.110034,-144.371,1.104704,95.4717,8.5385,-52.5238,8.5578,-172.4663,8.5556,67.393
157347,LL,0,0.502203,-28.6793,0.453608,-153.2913,1.343878,93.7209,6.5673,-79.5836,6.568,-150.7167,10.6848,64.8475
157347,LL,10,1.100181,-24.8926,1.107808,-144.9994,1.109184,95.6142,8.5419,-52.7959,8.5318,-172.7229,8.5463,67.2992
157347,LL,20,1.104125,-24.7534,1.108251,-144.6781,1.107151,95.5086,8.5418,-52.6306,8.5472,-172.5922,8.5495,67.3572
157347,LL,30,1.105454,-24.706,1.108378,-144.5702,1.106475,95.4724,8.5417,-52.5753,8.5523,-172.5484,8.5505,67.3768
157347,LL,40,1.106121,-24.6822,1.108437,-144.5162,1.106138,95.4541,8.5417,-52.5475,8.5548,-172.5264,8.551,67.3867
157347,3LG,0,0.488792,-32.6046,0.488748,-152.4102,0.487944,87.3113,4.1357,-60.4626,4.1478,179.5477,4.1424,59.3982
157347,3LG,10,1.105774,-24.9673,1.106249,-144.7112,1.102787,95.0414,8.5234,-52.8214,8.5443,-172.8177,8.5343,67.0592
157347,3LG,20,1.106962,-24.7892,1.107433,-144.5329,1.103966,95.2194,8.5325,-52.6433,8.5534,-172.6395,8.5435,67.2374
157347,3LG,30,1.107354,-24.7296,1.107823,-144.4732,1.104355,95.2789,8.5356,-52.5837,8.5564,-172.5799,8.5465,67.297
157347,3LG,40,1.10755,-24.6998,1.108018,-144.4433,1.104548,95.3088,8.5371,-52.5539,8.5579,-172.55,8.548,67.3269
298162,SLG,0,0.167233,-89.3125,1.406029,-157.9936,1.328231,111.84,7.7685,-58.6317,9.0424,-167.7732,9.8004,60.7175
298162,SLG,10,1.098697,-26.2104,1.120744,-144.2112,1.096677,95.874,8.5098,-53.1146,8.5125,-172.528,8.5865,67.1628
298162,SLG,20,1.103487,-25.4152,1.114691,-144.2772,1.100804,95.6339,8.5261,-52.7922,8.5374,-172.4965,8.5698,67.2902
298162,SLG,30,1.105052,-25.1479,1.112664,-144.3015,1.102223,95.5548,8.5313,-52.6835,8.5457,-172.4849,8.5641,67.3325
298162,SLG,40,1.105828,-25.0138,1.111649,-144.314,1.102941,95.5155,8.5339,-52.6289,8.5499,-172.479,8.5613,67.3536
298162,LL,0,0.106801,-137.1679,0.10433,-142.7852,1.397022,96.7241,5.5674,-114.5094,5.4612,-114.9192,11.0285,65.2876
298162,LL,10,1.09025,-25.7379,1.110977,-145.8082,1.108914,96.0101,8.546,-53.3698,8.4812,-173.1955,8.5362,67.094
298162,LL,20,1.099152,-25.1814,1.109959,-145.0822,1.106915,95.7096,8.544,-52.9191,8.5222,-172.8293,8.5447,67.2528
298162,LL,30,1.102137,-24.9926,1.109544,-144.8396,1.106294,95.6071,8.5433,-52.7679,8.5357,-172.7066,8.5474,67.3069
298162,LL,40,1.103633,-24.8976,1.109322,-144.7181,1.105993,95.5554,8.5429,-52.6921,8.5424,-172.6451,8.5487,67.3341
298162,3LG,0,0.006265,-94.509,0.006266,145.6377,0.006256,25.4498,0.053,-122.3698,0.0532,117.6233,0.0531,-2.4882
298162,3LG,10,1.102154,-25.5985,1.102695,-145.3431,1.099207,94.4126,8.4958,-53.4518,8.5166,-173.4485,8.5066,66.4285
298162,3LG,20,1.105177,-25.1056,1.105681,-144.8496,1.1022,94.9043,8.5189,-52.9593,8.5398,-172.9557,8.5298,66.9213
298162,3LG,30,1.106169,-24.9407,1.106661,-144.6845,1.103183,95.0687,8.5265,-52.7945,8.5474,-172.7908,8.5374,67.0861
298162,3LG,40,1.106663,-24.8582,1.107149,-144.6018,1.103671,95.151,8.5303,-52.712,8.5512,-172.7083,8.5412,67.1686
165448,SLG,0,0.160461,-89.5594,1.411064,-157.7633,1.322533,112.0549,7.7186,-57.7884,9.0875,-167.5734,9.7301,60.7105
165448,SLG,10,1.098527,-26.3429,1.121549,-144.1751,1.095665,95.8921,8.5075,-53.1663,8.5086,-172.5339,8.5892,67.1433
165448,SLG,20,1.103419,-25.482,1.11509,-144.2582,1.100285,95.6422,8.525,-52.8184,8.5354,-172.4998,8.5713,67.2806
165448,SLG,30,1.10501,-25.1926,1.112929,-144.2886,1.101874,95.5602,8.5306,-52.701,8.5444,-172.4873,8.5651,67.3261
165448,SLG,40,1.105799,-25.0474,1.111847,-144.3043,1.102678,95.5195,8.5334,-52.6421,8.5489,-172.4807,8.562,67.3488
165448,LL,0,0.102927,-137.9383,0.100689,-143.3393,1.397348,96.872,5.5474,-114.2952,5.4486,-114.6665,10.996,65.5208
165448,LL,10,1.089061,-25.8527,1.111566,-145.9047,1.108734,96.0642,8.5468,-53.4404,8.4751,-173.2555,8.535,67.0684
165448,LL,20,1.098562,-25.24,1.110279,-145.1302,1.106801,95.7371,8.5445,-52.9547,8.5192,-172.8595,8.5441,67.2398
165448,LL,30,1.101746,-25.032,1.109763,-144.8715,1.106213,95.6255,8.5436,-52.7917,8.5337,-172.7268,8.547,67.2981
165448,LL,40,1.10334,-24.9272,1.109489,-144.742,1.10593,95.5692,8.5431,-52.71,8.5409,-172.6603,8.5484,67.3275
165448,3LG,0,0.005804,-94.8965,0.005804,145.2459,0.005795,25.0655,0.0491,-122.7575,0.0492,117.2338,0.0492,-2.8746
165448,3LG,10,1.101749,-25.6775,1.102303,-145.4222,1.098806,94.3342,8.4927,-53.5306,8.5135,-173.5273,8.5035,66.3497
165448,3LG,20,1.10498,-25.1454,1.105491,-144.8893,1.102005,94.8648,8.5174,-52.9989,8.5383,-172.9953,8.5283,66.8816
165448,3LG,30,1.106039,-24.9673,1.106536,-144.711,1.103054,95.0424,8.5255,-52.8209,8.5464,-172.8173,8.5364,67.0596
165448,3LG,40,1.106566,-24.8781,1.107055,-144.6217,1.103575,95.1313,8.5295,-52.7319,8.5504,-172.7281,8.5405,67.1488
165449,SLG,0,0.092771,-95.0177,1.448525,-157.6194,1.319291,113.667,7.5578,-51.9922,9.4268,-166.6232,9.3059,60.9603
165449,SLG,10,1.098041,-27.697,1.130201,-143.7997,1.08497,96.0932,8.4893,-53.6805,8.4708,-172.6052,8.6175,66.963
165449,SLG,20,1.103452,-26.1637,1.119315,-144.0572,1.094783,95.7308,8.5172,-53.0791,8.5166,-172.5411,8.5861,67.1933
165449,SLG,30,1.105095,-25.648,1.115721,-144.1515,1.098174,95.6166,8.5257,-52.8755,8.5319,-172.516,8.5751,67.2686
165449,SLG,40,1.105886,-25.3893,1.113931,-144.2004,1.099891,95.5607,8.5298,-52.7732,8.5395,-172.5027,8.5695,67.3059
165449,LL,0,0.061182,-146.3865,0.060242,-151.7513,1.417858,97.2907,5.4684,-112.806,5.4084,-112.9661,10.8768,67.1143
165449,LL,10,1.077652,-27.0113,1.119251,-146.8884,1.107132,96.6446,8.5617,-54.1191,8.4223,-173.8733,8.5244,66.8141
165449,LL,20,1.093021,-25.8358,1.114441,-145.6131,1.105624,96.0299,8.5527,-53.2983,8.4936,-173.1696,8.5399,67.1096
165449,LL,30,1.098092,-25.4328,1.112607,-145.1912,1.105342,95.8209,8.5493,-53.0217,8.5168,-172.9337,8.5444,67.2107
165449,LL,40,1.100616,-25.2291,1.111647,-144.981,1.105244,95.7159,8.5474,-52.8829,8.5283,-172.8156,8.5466,67.2618
165449,3LG,0,0.003369,-99.4593,0.00337,140.627,0.003366,20.5293,0.0285,-127.3293,0.0286,112.6451,0.0286,-7.4321
165449,3LG,10,1.09886,-26.4627,1.099608,-146.2067,1.095973,93.5575,8.4711,-54.312,8.4919,-174.31,8.4818,65.5674
165449,3LG,20,1.103623,-25.5404,1.104232,-145.2837,1.100671,94.4742,8.5073,-53.3918,8.5281,-173.3889,8.5181,66.4882
165449,3LG,30,1.105155,-25.2311,1.105716,-144.9744,1.102183,94.7815,8.5189,-53.0834,8.5398,-173.0802,8.5298,66.7969
165449,3LG,40,1.10591,-25.0762,1.106448,-144.8194,1.102929,94.9354,8.5246,-52.9289,8.5455,-172.9255,8.5355,66.9515
287274,SLG,0,0.125994,-71.0737,1.458312,-155.7434,1.272057,114.1136,7.8109,-49.7288,9.6496,-167.0039,9.222,61.8316
287274,SLG,10,1.092442,-28.5984,1.136094,-143.5586,1.077898,96.2374,8.4495,-54.0135,8.4396,-172.5667,8.6285,66.7663
287274,SLG,20,1.100939,-26.6263,1.122188,-143.921,1.091044,95.7911,8.4984,-53.2541,8.5007,-172.5287,8.5926,67.0958
287274,SLG,30,1.103488,-25.9589,1.117614,-144.0573,1.095638,95.654,8.5135,-52.994,8.5212,-172.5093,8.5797,67.2039
287274,SLG,40,1.104706,-25.6234,1.115343,-144.1283,1.097973,95.5877,8.5208,-52.8628,8.5315,-172.4984,8.573,67.2575
287274,LL,0,0.113851,-69.6445,0.122182,176.4214,1.406746,97.9769,6.2334,-105.4093,4.819,-120.1411,10.9627,68.1725
287274,LL,10,1.064797,-27.7694,1.119036,-147.5609,1.106463,97.0376,8.5385,-54.6384,8.3537,-174.2062,8.5027,66.6534
287274,LL,20,1.086703,-26.2396,1.114695,-145.9444,1.10488,96.2306,8.542,-53.5676,8.4597,-173.3426,8.5301,67.0228
287274,LL,30,1.093913,-25.7074,1.112855,-145.4106,1.104751,95.9552,8.5423,-53.2035,8.4943,-173.0504,8.5381,67.1516
287274,LL,40,1.097495,-25.4371,1.111862,-145.1449,1.104765,95.8167,8.5423,-53.02,8.5115,-172.9036,8.5419,67.2169
287274,3LG,0,0.114191,-65.3218,0.114208,174.7281,0.114121,54.673,0.9675,-93.2053,0.969,146.7659,0.9678,26.7054
287274,3LG,10,1.091789,-26.9831,1.092713,-146.729,1.088995,93.0451,8.4173,-54.8297,8.4379,-174.8291,8.4277,65.0492
287274,3LG,20,1.100147,-25.8086,1.100847,-145.5525,1.097234,94.2103,8.4808,-53.6585,8.5016,-173.6563,8.4915,66.2213
287274,3LG,30,1.102852,-25.4117,1.103475,-145.1553,1.099905,94.6038,8.5014,-53.2629,8.5222,-173.2602,8.5122,66.6172
287274,3LG,40,1.104189,-25.2123,1.104773,-144.9557,1.101226,94.8015,8.5116,-53.0642,8.5324,-173.0611,8.5224,66.8161
283954,SLG,0,0.001228,-110.261,1.477577,-157.074,1.306492,114.9387,7.4355,-43.9547,9.8884,-165.3463,8.7448,61.1912
283954,SLG,10,1.085854,-29.6833,1.143585,-143.3337,1.070279,96.4634,8.4074,-54.4182,8.4034,-172.5366,8.6433,66.5456
283954,SLG,20,1.097957,-27.1722,1.125786,-143.7909,1.087031,95.8871,8.479,-53.4632,8.4824,-172.5222,8.601,66.9878
283954,SLG,30,1.101572,-26.3234,1.119974,-143.9666,1.092923,95.7141,8.5009,-53.1348,8.509,-172.5068,8.5855,67.1325
283954,SLG,40,1.103297,-25.897,1.117097,-144.0588,1.095923,95.6313,8.5114,-52.9688,8.5223,-172.4972,8.5775,67.2042
283954,LL,0,0.001555,-78.4847,0.001932,128.265,1.435201,97.4869,5.4129,-110.4463,5.378,-110.5551,10.791,69.4994
283954,LL,10,1.050115,-28.6337,1.119383,-148.4209,1.106976,97.4968,8.5183,-55.2449,8.2792,-174.6293,8.4793,66.4578
283954,LL,20,1.079569,-26.6929,1.11521,-146.3613,1.104611,96.4624,8.5328,-53.879,8.4232,-173.5573,8.5197,66.919
283954,LL,30,1.089215,-26.0139,1.113268,-145.6852,1.104453,96.1095,8.5364,-53.4128,8.4702,-173.1942,8.5315,67.0812
283954,LL,40,1.093995,-25.6686,1.112198,-145.3495,1.104496,95.9321,8.5379,-53.1777,8.4934,-173.0117,8.5371,67.1638
283954,3LG,0,0.001958,-93.621,0.001959,146.3794,0.001958,26.3777,0.0166,-121.521,0.0166,118.4441,0.0166,-1.6004
283954,3LG,10,1.084547,-27.6139,1.085707,-147.3596,1.081843,92.4254,8.3623,-55.4561,8.3828,-175.4569,8.3725,64.4221
283954,3LG,20,1.096597,-26.1286,1.097417,-145.8717,1.093718,93.8961,8.4539,-53.9759,8.4746,-173.9744,8.4644,65.9035
283954,3LG,30,1.100503,-25.6261,1.101206,-145.3689,1.097576,94.3934,8.4835,-53.4755,8.5043,-173.4732,8.4942,66.4044
283954,3LG,40,1.102434,-25.3734,1.103077,-145.1162,1.099485,94.6434,8.4982,-53.2239,8.519,-173.2212,8.509,66.6562
283956,SLG,0,0.001144,-92.7675,1.456897,-156.212,1.284485,114.079,8238.8417,-92.7298,9.813,-164.6614,8.6717,60.4782
283956,SLG,10,1.066279,-29.8971,1.146939,-143.5747,1.072776,96.7475,775.3148,-30.153,8.4288,-172.5248,8.6294,66.323
283956,SLG,20,1.087962,-27.3041,1.127766,-143.9049,1.087973,96.0366,399.2338,-27.8393,8.47,-172.4263,8.5951,66.8687
283956,SLG,30,1.094871,-26.4171,1.121359,-144.0406,1.093477,95.815,270.3484,-27.2259,8.5004,-172.444,8.5818,67.0514
283956,SLG,40,1.098259,-25.9694,1.11816,-144.1136,1.09631,95.7075,205.2758,-27.0468,8.5157,-172.4505,8.5749,67.1428
283956,LL,0,0.001464,-70.314,0.001628,141.2467,1.421282,97.6409,10543.9428,-70.3326,11717.1951,141.2713,10.6457,69.6556
283956,LL,10,1.033546,-28.541,1.102402,-148.8532,1.112832,97.4958,751.6893,-28.8331,801.1332,-149.1099,8.4789,66.3049
283956,LL,20,1.070633,-26.6697,1.106979,-146.6015,1.107573,96.4869,392.9628,-27.2394,405.9709,-147.1365,8.5012,66.8968
283956,LL,30,1.083116,-26.0042,1.107852,-145.8504,1.106419,96.1316,267.5058,-26.8467,273.3904,-146.6621,8.5191,67.0634
283956,LL,40,1.089369,-25.6636,1.108164,-145.4753,1.105965,95.9509,203.6598,-26.7741,207.0038,-146.5585,8.5278,67.1492
283956,3LG,0,0.001716,-83.6425,0.001717,156.3667,0.001716,36.3499,12352.8892,-83.6425,12361.573,156.3667,12351.4353,36.3498
283956,3LG,10,1.070576,-27.783,1.071729,-147.5321,1.06797,92.2549,778.1656,-28.0709,778.9741,-147.8219,776.2864,91.9663
283956,3LG,20,1.089457,-26.2243,1.090283,-145.9691,1.086632,93.8001,399.6261,-26.7868,399.9245,-146.5373,398.6085,93.2328
283956,3LG,30,1.095709,-25.6924,1.096419,-145.4364,1.092819,94.3269,270.4512,-26.5284,270.6227,-146.2809,269.7578,93.4839
283956,3LG,40,1.098826,-25.4242,1.099476,-145.1678,1.095905,94.5926,205.304,-26.5286,205.4224,-146.2836,204.7788,93.4789
189963,SLG,0,0.377327,-48.4429,1.437859,-151.2438,1.160749,112.8242,8.939,-52.1849,9.6717,-169.5851,9.6889,65.4103
189963,SLG,10,1.10144,-30.212,1.143304,-142.6986,1.059579,96.1047,8.4256,-54.6149,8.3949,-172.6358,8.6606,66.5488
189963,SLG,20,1.107131,-27.4616,1.125017,-143.4382,1.081487,95.6671,8.4921,-53.577,8.4782,-172.5875,8.6117,66.9975
189963,SLG,30,1.108012,-26.5208,1.119295,-143.724,1.089204,95.558,8.5106,-53.2135,8.5063,-172.554,8.5931,67.1412
189963,SLG,40,1.10825,-26.0466,1.116521,-143.8743,1.093127,95.5107,8.5191,-53.0288,8.5203,-172.5339,8.5834,67.2117
189963,LL,0,0.469449,-41.4567,0.429952,-177.0173,1.349021,99.032,6.8278,-83.5046,5.1462,-153.8648,9.8347,66.9687
189963,LL,10,1.053991,-29.4855,1.135514,-148.4682,1.097238,97.8894,8.5609,-55.346,8.3028,-174.9679,8.4829,66.3498
189963,LL,20,1.082874,-27.1982,1.124008,-146.3421,1.098509,96.6319,8.5582,-53.9567,8.4364,-173.7467,8.5249,66.8568
189963,LL,30,1.091776,-26.3668,1.119253,-145.6612,1.10012,96.2135,8.5544,-53.4706,8.4792,-173.3248,8.5358,67.0389
189963,LL,40,1.096057,-25.939,1.116724,-145.3272,1.101151,96.0064,8.5519,-53.2232,8.5004,-173.1112,8.5407,67.1318
189963,3LG,0,0.480536,-50.2548,0.480785,-170.2605,0.480877,69.7676,4.0743,-78.1588,4.0789,161.8224,4.0754,41.7754
189963,3LG,10,1.089854,-27.8758,1.091553,-147.6227,1.087294,92.1965,8.4056,-55.707,8.4254,-175.7116,8.4149,64.1739
189963,3LG,20,1.09959,-26.2912,1.100678,-146.0319,1.096726,93.7513,8.478,-54.1315,8.4983,-174.1321,8.4881,65.7491
189963,3LG,30,1.102584,-25.7415,1.103463,-145.4821,1.099653,94.29,8.5002,-53.5859,8.5208,-173.5851,8.5106,66.2947
189963,3LG,40,1.104028,-25.4626,1.104803,-145.2036,1.101071,94.5632,8.511,-53.3093,8.5316,-173.3077,8.5215,66.5713
181977,SLG,0,0.477971,-45.8476,1.413748,-149.7879,1.12794,111.4009,9.0368,-53.3606,9.4874,-170.2253,9.7051,65.9398
181977,SLG,10,1.104191,-30.2348,1.142506,-142.5717,1.057838,95.9971,8.4261,-54.6225,8.3945,-172.6389,8.6612,66.5486
181977,SLG,20,1.10904,-27.4843,1.124413,-143.3625,1.080527,95.5995,8.4936,-53.5889,8.4778,-172.5948,8.6129,66.9991
181977,SLG,30,1.109414,-26.5378,1.118834,-143.6711,1.088553,95.5095,8.512,-53.2229,8.506,-172.5603,8.5941,67.1429
181977,SLG,40,1.109352,-26.0599,1.116152,-143.8337,1.092637,95.473,8.5203,-53.0364,8.5201,-172.5392,8.5842,67.2133
181977,LL,0,0.55898,-39.5214,0.530647,-171.6285,1.320455,99.3327,7.2156,-77.144,5.9368,-161.5587,9.7801,65.6884
181977,LL,10,1.054915,-29.5885,1.137713,-148.4215,1.095072,97.9401,8.565,-55.3317,8.3064,-174.9946,8.4816,66.3471
181977,LL,20,1.08377,-27.2833,1.12546,-146.305,1.096998,96.6508,8.5616,-53.9596,8.4387,-173.7694,8.5253,66.8501
181977,LL,30,1.092502,-26.4303,1.12028,-145.6324,1.099021,96.2232,8.557,-53.4747,8.481,-173.3419,8.5363,67.0336
181977,LL,40,1.096654,-25.989,1.117512,-145.3039,1.100293,96.0123,8.554,-53.2271,8.5017,-173.1248,8.5411,67.1276
181977,3LG,0,0.574512,-46.2304,0.57499,-166.2282,0.574991,73.8051,5.3213,-74.0901,5.3317,165.8914,5.325,45.8034
181977,3LG,10,1.090543,-27.885,1.092328,-147.6296,1.087963,92.1921,8.4111,-55.7134,8.4309,-175.7187,8.4204,64.167
181977,3LG,20,1.100062,-26.3076,1.101191,-146.0463,1.097169,93.7376,8.4817,-54.1461,8.502,-174.1472,8.4917,65.7342
181977,3LG,30,1.102934,-25.7552,1.103838,-145.4942,1.099979,94.2781,8.5029,-53.5983,8.5235,-173.5977,8.5133,66.2821
181977,3LG,40,1.104304,-25.4739,1.105097,-145.2136,1.101327,94.5533,8.5131,-53.3196,8.5338,-173.3182,8.5236,66.5609
181924,SLG,0,0.476718,-37.5774,1.411507,-150.297,1.141191,111.3556,8.9576,-52.6715,9.3315,-169.1219,9.6359,67.2127
181924,SLG,10,1.112861,-30.5672,1.141705,-142.1582,1.051255,95.7261,8.4285,-54.7668,8.3856,-172.6799,8.6709,66.52
181924,SLG,20,1.114181,-27.6075,1.12316,-143.1551,1.077698,95.4315,8.4982,-53.6507,8.4748,-172.6231,8.618,66.9969
181924,SLG,30,1.112995,-26.6089,1.117805,-143.5346,1.086796,95.3915,8.5157,-53.2609,8.5044,-172.5804,8.5974,67.1444
181924,SLG,40,1.112091,-26.1088,1.115308,-143.7323,1.091371,95.3824,8.5233,-53.0636,8.5191,-172.5547,8.5867,67.2154
181924,LL,0,0.556556,-35.9411,0.498516,-164.125,1.319479,98.799,6.9582,-76.499,6.1947,-155.8715,10.1335,66.5725
181924,LL,10,1.055457,-30.1814,1.147164,-148.4363,1.088138,98.2091,8.5789,-55.4227,8.3112,-175.1837,8.4787,66.2618
181924,LL,20,1.085719,-27.5771,1.129906,-146.2403,1.092837,96.7233,8.5711,-54.0024,8.4433,-173.8557,8.5268,66.8138
181924,LL,30,1.094178,-26.6213,1.123105,-145.5743,1.096166,96.2559,8.5639,-53.5018,8.4845,-173.3974,8.5379,67.012
181924,LL,40,1.09805,-26.1298,1.119569,-145.255,1.098133,96.0309,8.5594,-53.2468,8.5045,-173.1656,8.5426,67.1125
181924,3LG,0,0.547779,-41.5621,0.548175,-161.5562,0.548215,78.474,4.897,-69.4316,4.9062,170.555,4.9006,50.4679
181924,3LG,10,1.092295,-28.0507,1.094228,-147.7828,1.089558,92.0394,8.4246,-55.8704,8.4445,-175.8763,8.4338,64.0098
181924,3LG,20,1.101249,-26.3858,1.102407,-146.1169,1.098231,93.6644,8.4906,-54.22,8.511,-174.2213,8.5006,65.6602
181924,3LG,30,1.103796,-25.8058,1.104708,-145.5397,1.100749,94.2303,8.5094,-53.6462,8.53,-173.6458,8.5197,66.2341
181924,3LG,40,1.104978,-25.5112,1.105772,-145.247,1.101929,94.5179,8.5181,-53.3549,8.5388,-173.3537,8.5286,66.5255
181993,SLG,0,0.51675,-35.9187,1.4001,-149.8947,1.133321,110.7059,8.889,-52.493,9.2478,-169.201,9.5207,67.3149
181993,SLG,10,1.115679,-30.6586,1.1413,-142.0113,1.048994,95.6229,8.4279,-54.8044,8.3829,-172.6867,8.6731,66.509
181993,SLG,20,1.116103,-27.6433,1.12258,-143.0768,1.07669,95.3629,8.4995,-53.6703,8.4738,-172.6319,8.6196,66.9961
181993,SLG,30,1.114384,-26.6295,1.117329,-143.4822,1.086166,95.3423,8.517,-53.2737,8.5039,-172.5874,8.5986,67.145
181993,SLG,40,1.113172,-26.1229,1.114917,-143.6931,1.090917,95.3444,8.5244,-53.073,8.5187,-172.5603,8.5875,67.2164
181993,LL,0,0.584363,-34.7281,0.534093,-161.0621,1.308292,98.7921,7.096,-73.7939,6.6091,-157.3651,10.2243,66.239
181993,LL,10,1.055511,-30.3548,1.150111,-148.4376,1.085808,98.3036,8.5826,-55.4388,8.3124,-175.2378,8.4764,66.2419
181993,LL,20,1.086499,-27.6789,1.131478,-146.2103,1.091242,96.7473,8.5743,-54.0137,8.4451,-173.8843,8.5271,66.8024
181993,LL,30,1.094883,-26.6902,1.124131,-145.5474,1.09504,96.2653,8.5665,-53.5097,8.4859,-173.4166,8.5384,67.0048
181993,LL,40,1.098649,-26.1816,1.120325,-145.2324,1.097271,96.0354,8.5614,-53.2528,8.5057,-173.1801,8.543,67.1074
181993,3LG,0,0.57601,-39.2046,0.576467,-159.1867,0.576438,80.8373,5.3444,-67.0604,5.3549,172.9285,5.3488,52.8372
181993,3LG,10,1.092846,-28.0932,1.094796,-147.82,1.090028,92.0004,8.4287,-55.91,8.4486,-175.9158,8.4379,63.9703
181993,3LG,20,1.101695,-26.4101,1.102842,-146.1378,1.098615,93.6413,8.4938,-54.2427,8.5143,-174.244,8.5039,65.6375
181993,3LG,30,1.104134,-25.8224,1.105034,-145.554,1.101043,94.2143,8.5118,-53.6618,8.5324,-173.6615,8.5222,66.2185
181993,3LG,40,1.105248,-25.5238,1.10603,-145.258,1.102164,94.5056,8.5201,-53.3668,8.5408,-173.3656,8.5306,66.5135
181994,SLG,0,0.558409,-35.2752,1.388489,-149.3696,1.12281,110.0088,8.8268,-52.4102,9.1798,-169.3895,9.416,67.2689
181994,SLG,10,1.117855,-30.7588,1.141192,-141.8797,1.04684,95.5415,8.4273,-54.8368,8.3813,-172.6949,8.675,66.4943
181994,SLG,20,1.117789,-27.6879,1.122144,-143.0028,1.075684,95.303,8.5004,-53.6927,8.4726,-172.6399,8.6212,66.9932
181994,SLG,30,1.115638,-26.6567,1.116943,-143.4321,1.085529,95.2984,8.518,-53.2888,8.5031,-172.5941,8.5998,67.1443
181994,SLG,40,1.114159,-26.1422,1.114591,-143.6554,1.090454,95.31,8.5254,-53.0842,8.5182,-172.5658,8.5885,67.2163
181994,LL,0,0.616351,-33.7439,0.5773,-159.2265,1.296826,98.8532,7.303,-70.8889,7.0517,-159.5425,10.2703,65.764
181994,LL,10,1.055067,-30.5095,1.15261,-148.4663,1.083974,98.4017,8.5853,-55.4598,8.3119,-175.292,8.4733,66.2239
181994,LL,20,1.08704,-27.7798,1.132953,-146.1945,1.089807,96.7758,8.5772,-54.0296,8.4461,-173.9158,8.527,66.7899
181994,LL,30,1.095441,-26.7602,1.125113,-145.5299,1.094003,96.2779,8.5688,-53.5211,8.4868,-173.4383,8.5388,66.9965
181994,LL,40,1.099143,-26.2347,1.121054,-145.2167,1.096469,96.0422,8.5633,-53.2616,8.5064,-173.1966,8.5434,67.1013
181994,3LG,0,0.612322,-37.4698,0.612891,-157.4357,0.61273,82.5804,5.92,-65.3115,5.9322,174.6795,5.9253,54.5822
181994,3LG,10,1.093186,-28.1397,1.095157,-147.8614,1.090294,91.9576,8.4312,-55.9536,8.451,-175.9594,8.4404,63.9268
181994,3LG,20,1.102056,-26.439,1.103195,-146.1634,1.098915,93.6138,8.4964,-54.2701,8.5169,-174.2714,8.5065,65.6102
181994,3LG,30,1.104423,-25.8427,1.105311,-145.5721,1.101287,94.1946,8.5139,-53.6812,8.5345,-173.6808,8.5243,66.1992
181994,3LG,40,1.105483,-25.5394,1.106254,-145.2718,1.102365,94.4904,8.5218,-53.3817,8.5425,-173.3805,8.5323,66.4987
181891,SLG,0,0.624426,-37.3593,1.369026,-148.2536,1.1004,108.7663,8.7638,-52.6962,9.1336,-170.206,9.2888,66.598
181891,SLG,10,1.115053,-30.6146,1.141563,-141.9934,1.048546,95.6247,8.4239,-54.7592,8.3849,-172.6641,8.6692,66.5091
181891,SLG,20,1.116731,-27.6534,1.122515,-143.0399,1.076105,95.34,8.4993,-53.6683,8.4739,-172.6307,8.6193,66.996
181891,SLG,30,1.115046,-26.6412,1.117204,-143.4519,1.085722,95.3207,8.5174,-53.2762,8.5038,-172.5892,8.5988,67.1456
181891,SLG,40,1.113763,-26.1333,1.114788,-143.6683,1.090567,95.3256,8.525,-53.0762,8.5186,-172.5626,8.5879,67.2172
181891,LL,0,0.670596,-34.5943,0.65248,-159.8237,1.275929,99.1613,7.7541,-67.5499,7.5307,-165.0787,10.0765,64.641
181891,LL,10,1.055065,-30.2301,1.14899,-148.4583,1.086636,98.3177,8.5821,-55.3882,8.3116,-175.2108,8.4727,66.2835
181891,LL,20,1.086557,-27.6957,1.132037,-146.2094,1.090806,96.7692,8.5755,-54.006,8.4459,-173.8908,8.5263,66.8059
181891,LL,30,1.095093,-26.7169,1.124698,-145.5407,1.094552,96.2786,8.5678,-53.5084,8.4867,-173.4249,8.5383,67.0043
181891,LL,40,1.098884,-26.2071,1.120812,-145.2246,1.096833,96.0443,8.5627,-53.2532,8.5064,-173.1877,8.5431,67.1061
181891,3LG,0,0.677685,-37.6461,0.678532,-157.5912,0.678029,82.4149,6.9563,-65.4706,6.9721,174.5171,6.9629,54.4107
181891,3LG,10,1.092884,-28.0537,1.094769,-147.782,1.090074,92.035,8.4288,-55.8726,8.4487,-175.878,8.4381,64.0073
181891,3LG,20,1.101914,-26.4101,1.103041,-146.1377,1.098827,93.6397,8.4954,-54.2432,8.5159,-174.2443,8.5055,65.6368
181891,3LG,30,1.104341,-25.8268,1.105226,-145.5581,1.10124,94.2089,8.5134,-53.6664,8.534,-173.6659,8.5238,66.2137
181891,3LG,40,1.105427,-25.5288,1.106198,-145.2626,1.102335,94.4999,8.5214,-53.3719,8.5421,-173.3706,8.5319,66.5084
255335,SLG,0,0.625736,-35.8885,1.373513,-148.2704,1.099936,108.9788,8.7414,-52.4474,9.0961,-169.8496,9.2716,66.9785
255335,SLG,10,1.120419,-30.9657,1.141786,-141.6624,1.04288,95.4416,8.43,-54.8603,8.3853,-172.7284,8.6772,66.4583
255335,SLG,20,1.120269,-27.7977,1.121793,-142.8695,1.07365,95.2144,8.5,-53.7395,8.4694,-172.65,8.6241,66.9806
255335,SLG,30,1.117565,-26.7284,1.116531,-143.3396,1.084204,95.2307,8.5186,-53.3219,8.5011,-172.6038,8.6021,67.1378
255335,SLG,40,1.115707,-26.195,1.114212,-143.585,1.089477,95.2561,8.5261,-53.1096,8.5167,-172.5742,8.5903,67.2123
255335,LL,0,0.678904,-33.0517,0.655471,-158.7685,1.279024,99.1079,7.7962,-66.4655,7.5709,-165.2013,10.0085,65.1458
255335,LL,10,1.052855,-30.7588,1.156321,-148.5713,1.081616,98.602,8.5865,-55.506,8.3063,-175.3819,8.4657,66.1978
255335,LL,20,1.087202,-27.9708,1.135487,-146.199,1.087479,96.8489,8.5807,-54.0708,8.4452,-173.9766,8.5259,66.7645
255335,LL,30,1.095919,-26.8972,1.126847,-145.5203,1.092252,96.3155,8.572,-53.5521,8.4867,-173.4819,8.5387,66.9786
255335,LL,40,1.099648,-26.3403,1.122355,-145.2048,1.095093,96.0658,8.5661,-53.286,8.5065,-173.2304,8.5436,67.0877
255335,3LG,0,0.684979,-36.4643,0.685903,-156.4012,0.685346,83.6049,7.0723,-64.2854,7.0884,175.7063,7.0795,55.5973
255335,3LG,10,1.093164,-28.2263,1.0952,-147.9397,1.090175,91.8785,8.431,-56.0351,8.4508,-176.0407,8.4402,63.8456
255335,3LG,20,1.102367,-26.5015,1.103506,-146.2201,1.099129,93.5543,8.4986,-54.3297,8.519,-174.3309,8.5087,65.5507
255335,3LG,30,1.104719,-25.8884,1.105596,-145.6137,1.101508,94.1506,8.516,-53.725,8.5366,-173.7246,8.5264,66.1554
255335,3LG,40,1.10574,-25.5751,1.106499,-145.3045,1.102563,94.4558,8.5236,-53.416,8.5443,-173.4148,8.5341,66.4644
182030,SLG,0,0.643291,-36.6617,1.369431,-147.8864,1.091886,108.6684,8.729,-52.548,9.0889,-170.0736,9.2452,66.7814
182030,SLG,10,1.119823,-30.9173,1.141688,-141.6902,1.043397,95.4535,8.4283,-54.8425,8.3854,-172.7165,8.6756,66.4631
182030,SLG,20,1.12007,-27.7869,1.121807,-142.8769,1.073766,95.219,8.4998,-53.7338,8.4697,-172.6478,8.6237,66.9812
182030,SLG,30,1.117471,-26.7238,1.116543,-143.3429,1.084252,95.233,8.5184,-53.3194,8.5012,-172.6028,8.6019,67.138
182030,SLG,40,1.115652,-26.1925,1.114221,-143.5868,1.089504,95.2574,8.526,-53.1083,8.5168,-172.5736,8.5902,67.2124
182030,LL,0,0.693652,-33.0384,0.679536,-159.1678,1.27421,99.264,7.9548,-65.4363,7.7178,-166.8754,9.9243,64.903
182030,LL,10,1.053072,-30.6938,1.155352,-148.5485,1.082066,98.5717,8.5852,-55.4877,8.3061,-175.3557,8.4659,66.2128
182030,LL,20,1.087165,-27.9534,1.135243,-146.1971,1.087641,96.8442,8.5802,-54.0659,8.445,-173.9702,8.5257,66.7682
182030,LL,30,1.095889,-26.8895,1.126742,-145.52,1.092327,96.3139,8.5717,-53.5499,8.4866,-173.4791,8.5386,66.9801
182030,LL,40,1.099627,-26.336,1.122298,-145.2047,1.095136,96.0651,8.5659,-53.2847,8.5064,-173.2288,8.5435,67.0886
182030,3LG,0,0.706101,-36.4449,0.707156,-156.375,0.706464,83.6298,7.4074,-64.2616,7.4248,175.7296,7.4151,55.6175
182030,3LG,10,1.093029,-28.2011,1.095047,-147.9152,1.090046,91.9025,8.4299,-56.0106,8.4497,-176.0161,8.4391,63.8702
182030,3LG,20,1.102316,-26.495,1.103453,-146.2139,1.099082,93.5606,8.4982,-54.3233,8.5186,-174.3246,8.5083,65.557
182030,3LG,30,1.104693,-25.8855,1.10557,-145.6109,1.101485,94.1535,8.5158,-53.7221,8.5364,-173.7217,8.5262,66.1583
182030,3LG,40,1.105724,-25.5735,1.106484,-145.3029,1.102549,94.4574,8.5235,-53.4144,8.5441,-173.4132,8.534,66.466
182153,SLG,0,0.72911,-37.5992,1.356024,-146.2907,1.058866,107.4791,8.6254,-52.6602,8.9842,-170.6032,9.0823,66.4284
182153,SLG,10,1.121121,-31.7551,1.148814,-141.1787,1.03182,95.5874,8.4398,-54.8767,8.4001,-172.7908,8.684,66.3905
182153,SLG,20,1.124584,-28.2198,1.122804,-142.5162,1.067265,95.0645,8.4913,-53.8922,8.4573,-172.6605,8.6316,66.9178
182153,SLG,30,1.121285,-27.0148,1.116703,-143.0866,1.079919,95.1026,8.515,-53.4339,8.4929,-172.6203,8.6083,67.0999
182153,SLG,40,1.11882,-26.4101,1.114133,-143.3897,1.086277,95.1494,8.5244,-53.1968,8.5106,-172.5902,8.5955,67.1857
182153,LL,0,0.787505,-32.901,0.777408,-159.7195,1.252282,99.5804,8.8118,-61.3948,8.4066,-173.9333,9.5671,64.3543
182153,LL,10,1.043415,-31.1019,1.161477,-149.166,1.081489,99.1596,8.5911,-55.6247,8.3079,-175.5262,8.4656,66.0834
182153,LL,20,1.084079,-28.5133,1.141986,-146.3686,1.08257,97.1475,8.5839,-54.2287,8.4327,-174.1628,8.5178,66.6846
182153,LL,30,1.094868,-27.3033,1.13144,-145.5958,1.088191,96.4858,8.5763,-53.6737,8.4792,-173.6178,8.5353,66.9187
182153,LL,40,1.099291,-26.6587,1.125835,-145.2468,1.091792,96.1802,8.5703,-53.3831,8.5012,-173.3367,8.5419,67.0413
182153,3LG,0,0.806728,-36.5703,0.808597,-156.4468,0.806816,83.5378,9.0028,-64.3582,9.0279,175.6292,9.0137,55.4978
182153,3LG,10,1.091192,-28.5013,1.093593,-148.205,1.088235,91.6271,8.4168,-56.2994,8.4365,-176.3048,8.426,63.5824
182153,3LG,20,1.101933,-26.713,1.103203,-146.4189,1.098543,93.3562,8.4952,-54.5326,8.5156,-174.534,8.5052,65.3483
182153,3LG,30,1.104623,-26.0462,1.105555,-145.7618,1.101272,94.0008,8.5151,-53.8769,8.5356,-173.8767,8.5254,66.0038
182153,3LG,40,1.105751,-25.6998,1.106537,-145.4216,1.102456,94.3366,8.5235,-53.5364,8.5441,-173.5353,8.5339,66.3443
182158,SLG,0,0.757399,-37.189,1.347973,-145.8957,1.052359,106.9234,8.5835,-52.6524,8.9392,-170.7042,9.0232,66.385
182158,SLG,10,1.121188,-32.0311,1.151732,-141.0068,1.02774,95.6712,8.4427,-54.8678,8.4052,-172.8011,8.6857,66.3776
182158,SLG,20,1.12639,-28.3582,1.123054,-142.3827,1.064927,95.0007,8.4885,-53.9408,8.4534,-172.6639,8.634,66.898
182158,SLG,30,1.122858,-27.1061,1.116624,-142.991,1.078381,95.0473,8.5142,-53.4699,8.4903,-172.6266,8.6104,67.0887
182158,SLG,40,1.12014,-26.4773,1.113973,-143.3162,1.085144,95.1031,8.5242,-53.2248,8.5087,-172.5964,8.5972,67.1783
182158,LL,0,0.811901,-32.5319,0.805497,-158.9551,1.243968,99.5738,9.0457,-60.2072,8.5958,-175.3274,9.4707,64.5303
182158,LL,10,1.042731,-30.9275,1.160459,-149.4075,1.083858,99.2489,8.605,-55.5886,8.3187,-175.5623,8.4688,66.1022
182158,LL,20,1.083031,-28.7001,1.144582,-146.4217,1.08072,97.2617,8.5855,-54.2721,8.4297,-174.2246,8.5147,66.6594
182158,LL,30,1.09466,-27.4459,1.133276,-145.6115,1.086594,96.5474,8.5782,-53.7085,8.4776,-173.6629,8.5342,66.8991
182158,LL,40,1.099343,-26.7706,1.127213,-145.251,1.090483,96.2195,8.5721,-53.4112,8.5002,-173.3719,8.5415,67.0261
182158,3LG,0,0.83229,-35.9528,0.8344,-155.8041,0.832185,84.1667,9.4073,-63.7293,9.4348,176.2587,9.4194,56.1198
182158,3LG,10,1.090711,-28.5801,1.093229,-148.2825,1.087788,91.5546,8.4135,-56.3756,8.4331,-176.3812,8.4226,63.5062
182158,3LG,20,1.101941,-26.7776,1.103256,-146.4793,1.098498,93.2959,8.4953,-54.5943,8.5156,-174.5959,8.5053,65.2865
182158,3LG,30,1.104717,-26.095,1.105664,-145.8072,1.101313,93.9545,8.5157,-53.9237,8.5362,-173.9236,8.526,65.957
182158,3LG,40,1.10586,-25.7384,1.10665,-145.4576,1.102519,94.2996,8.5242,-53.5736,8.5448,-173.5726,8.5347,66.3071
182162,SLG,0,0.781083,-36.706,1.340556,-145.5987,1.048048,106.4335,8.5462,-52.6314,8.8987,-170.7658,8.9724,66.3701
182162,SLG,10,1.121002,-32.3083,1.154893,-140.8403,1.023608,95.7704,8.4451,-54.8526,8.4105,-172.8082,8.6869,66.3655
182162,SLG,20,1.128196,-28.4971,1.123346,-142.2474,1.06254,94.9373,8.4857,-53.9883,8.4496,-172.6667,8.6363,66.8781
182162,SLG,30,1.124464,-27.1968,1.116544,-142.8939,1.07682,94.9906,8.5134,-53.5053,8.4878,-172.6327,8.6125,67.0776
182162,SLG,40,1.121496,-26.5434,1.113799,-143.2416,1.084,95.0554,8.524,-53.2523,8.5069,-172.6026,8.5989,67.171
182162,LL,0,0.832037,-32.1915,0.827938,-158.1928,1.236773,99.5326,9.2278,-59.2284,8.7476,-176.3266,9.388,64.7234
182162,LL,10,1.042163,-30.7565,1.159317,-149.6401,1.08623,99.3327,8.6186,-55.5565,8.3287,-175.5951,8.4724,66.1227
182162,LL,20,1.081855,-28.8842,1.147264,-146.4798,1.078921,97.3832,8.587,-54.3123,8.4268,-174.2858,8.5115,66.6351
182162,LL,30,1.094422,-27.5885,1.135186,-145.6275,1.084978,96.6121,8.5802,-53.7413,8.4763,-173.7076,8.533,66.8797
182162,LL,40,1.099399,-26.8828,1.128645,-145.2541,1.089146,96.2601,8.574,-53.4379,8.4994,-173.4067,8.541,67.011
182162,3LG,0,0.852609,-35.3762,0.854897,-155.2054,0.852302,84.7518,9.7282,-63.1434,9.7579,176.8451,9.7414,56.6999
182162,3LG,10,1.090253,-28.6544,1.092889,-148.3563,1.087378,91.4861,8.4104,-56.4477,8.43,-176.4535,8.4195,63.434
182162,3LG,20,1.101971,-26.84,1.103336,-146.5375,1.098477,93.238,8.4955,-54.6537,8.5158,-174.6555,8.5055,65.2271
182162,3LG,30,1.104833,-26.1422,1.105796,-145.851,1.101374,93.9098,8.5165,-53.9689,8.537,-173.9689,8.5268,65.9117
182162,3LG,40,1.105988,-25.7759,1.106783,-145.4924,1.1026,94.2637,8.5251,-53.6096,8.5457,-173.6087,8.5355,66.271
